j1_feederfiles/filestoopal/Transformers.dss
New	Transformer.B13552-1A	phases=1	wdg=1	bus=B13552.1	kv=7.2	kVA=40	wdg=2	bus=X_B13552-A.1	kv=0.24	kVA=40	%loadloss=0.7221	%noloadloss=.2423	XHL=1.5158	normhkva=40	emerghkva=56
New	Transformer.B34986-1C	phases=1	wdg=1	bus=B34986.3	kv=7.2	kVA=25	wdg=2	bus=X_B34986-C.3	kv=0.24	kVA=25	%loadloss=0.7639	%noloadloss=.0851	XHL=2.1	normhkva=25	emerghkva=35
New	Transformer.B45835-1B	phases=1	wdg=1	bus=B45835.2	kv=7.2	kVA=25	wdg=2	bus=X_B45835-B.2	kv=0.24	kVA=25	%loadloss=0.7639	%noloadloss=.0851	XHL=2.1	normhkva=25	emerghkva=35
New	Transformer.B50640-1A	phases=1	wdg=1	bus=B50640.1	kv=7.2	kVA=15	wdg=2	bus=X_B50640-A.1	kv=0.24	kVA=15	%loadloss=1.04	%noloadloss=0.34	XHL=1.5	normhkva=15	emerghkva=21
New	Transformer.B4805-1C	phases=1	wdg=1	bus=B4805.3	kv=7.2	kVA=50	wdg=2	bus=X_B4805-C.3	kv=0.24	kVA=50	%loadloss=0.7380	%noloadloss=.1987	XHL=1.7532	normhkva=50	emerghkva=70
New	Transformer.B4710-1A	phases=1	wdg=1	bus=B4710.1	kv=7.2	kVA=15	wdg=2	bus=X_B4710-A.1	kv=0.24	kVA=15	%loadloss=1.04	%noloadloss=0.34	XHL=1.5	normhkva=15	emerghkva=21
New	Transformer.B4859-1A	phases=1	wdg=1	bus=B4859.1	kv=7.2	kVA=25	wdg=2	bus=X_B4859-A.1	kv=0.24	kVA=25	%loadloss=0.7639	%noloadloss=.0851	XHL=2.1	normhkva=25	emerghkva=35
New	Transformer.B4859-1B	phases=1	wdg=1	bus=B4859.2	kv=7.2	kVA=25	wdg=2	bus=X_B4859-B.2	kv=0.24	kVA=25	%loadloss=0.7639	%noloadloss=.0851	XHL=2.1	normhkva=25	emerghkva=35
New	Transformer.B4859-1C	phases=1	wdg=1	bus=B4859.3	kv=7.2	kVA=25	wdg=2	bus=X_B4859-C.3	kv=0.24	kVA=25	%loadloss=0.7639	%noloadloss=.0851	XHL=2.1	normhkva=25	emerghkva=35
New	Transformer.B41240-1A	phases=1	wdg=1	bus=B41240.1	kv=7.2	kVA=15	wdg=2	bus=X_B41240-A.1	kv=0.24	kVA=15	%loadloss=1.04	%noloadloss=0.34	XHL=1.5	normhkva=15	emerghkva=21
New	Transformer.B55546-1C	phases=1	wdg=1	bus=B55546.3	kv=7.2	kVA=15	wdg=2	bus=X_B55546-C.3	kv=0.24	kVA=15	%loadloss=1.04	%noloadloss=0.34	XHL=1.5	normhkva=15	emerghkva=21
New	Transformer.B18979-1C	phases=1	wdg=1	bus=B18979.3	kv=7.2	kVA=15	wdg=2	bus=X_B18979-C.3	kv=0.24	kVA=15	%loadloss=1.04	%noloadloss=0.34	XHL=1.5	normhkva=15	emerghkva=21
New	Transformer.B4982-1B	phases=1	wdg=1	bus=B4982.2	kv=7.2	kVA=15	wdg=2	bus=X_B4982-B.2	kv=0.24	kVA=15	%loadloss=1.04	%noloadloss=0.34	XHL=1.5	normhkva=15	emerghkva=21
New	Transformer.B18902-1A	phases=1	wdg=1	bus=B18902.1	kv=7.2	kVA=15	wdg=2	bus=X_B18902-A.1	kv=0.24	kVA=15	%loadloss=1.04	%noloadloss=0.34	XHL=1.5	normhkva=15	emerghkva=21
New	Transformer.B2532-1A	phases=1	wdg=1	bus=B2532.1	kv=7.2	kVA=15	wdg=2	bus=X_B2532-A.1	kv=0.24	kVA=15	%loadloss=1.04	%noloadloss=0.34	XHL=1.5	normhkva=15	emerghkva=21
New	Transformer.B47668-1A	phases=1	wdg=1	bus=B47668.1	kv=7.2	kVA=15	wdg=2	bus=X_B47668-A.1	kv=0.24	kVA=15	%loadloss=1.04	%noloadloss=0.34	XHL=1.5	normhkva=15	emerghkva=21
New	Transformer.B47668-1B	phases=1	wdg=1	bus=B47668.2	kv=7.2	kVA=15	wdg=2	bus=X_B47668-B.2	kv=0.24	kVA=15	%loadloss=1.04	%noloadloss=0.34	XHL=1.5	normhkva=15	emerghkva=21
New	Transformer.B47668-1C	phases=1	wdg=1	bus=B47668.3	kv=7.2	kVA=15	wdg=2	bus=X_B47668-C.3	kv=0.24	kVA=15	%loadloss=1.04	%noloadloss=0.34	XHL=1.5	normhkva=15	emerghkva=21
New	Transformer.B4891-1C	phases=1	wdg=1	bus=B4891.3	kv=7.2	kVA=25	wdg=2	bus=X_B4891-C.3	kv=0.24	kVA=25	%loadloss=0.7639	%noloadloss=.0851	XHL=2.1	normhkva=25	emerghkva=35
New	Transformer.B18858-1B	phases=1	wdg=1	bus=B18858.2	kv=7.2	kVA=15	wdg=2	bus=X_B18858-B.2	kv=0.24	kVA=15	%loadloss=1.04	%noloadloss=0.34	XHL=1.5	normhkva=15	emerghkva=21
New	Transformer.5851228580-1C	phases=1	wdg=1	bus=5851228580.3	kv=7.2	kVA=25	wdg=2	bus=X_5851228580-C.3	kv=0.24	kVA=25	%loadloss=0.7639	%noloadloss=.0851	XHL=2.1	normhkva=25	emerghkva=35
New	Transformer.B18971-1C	phases=1	wdg=1	bus=B18971.3	kv=7.2	kVA=25	wdg=2	bus=X_B18971-C.3	kv=0.24	kVA=25	%loadloss=0.7639	%noloadloss=.0851	XHL=2.1	normhkva=25	emerghkva=35
New	Transformer.B8019-1C	phases=1	wdg=1	bus=B8019.3	kv=7.2	kVA=25	wdg=2	bus=X_B8019-C.3	kv=0.24	kVA=25	%loadloss=0.7639	%noloadloss=.0851	XHL=2.1	normhkva=25	emerghkva=35
New	Transformer.B60843-1C	phases=1	wdg=1	bus=B60843.3	kv=7.2	kVA=15	wdg=2	bus=X_B60843-C.3	kv=0.24	kVA=15	%loadloss=1.04	%noloadloss=0.34	XHL=1.5	normhkva=15	emerghkva=21
New	Transformer.B44432-1C	phases=1	wdg=1	bus=B44432.3	kv=7.2	kVA=10	wdg=2	bus=X_B44432-C.3	kv=0.24	kVA=10	%loadloss=1.022	%noloadloss=.3221	XHL=1.707	normhkva=10	emerghkva=14
New	Transformer.B52584-1B	phases=1	wdg=1	bus=B52584.2	kv=7.2	kVA=25	wdg=2	bus=X_B52584-B.2	kv=0.24	kVA=25	%loadloss=0.7639	%noloadloss=.0851	XHL=2.1	normhkva=25	emerghkva=35
New	Transformer.B41463-1C	phases=1	wdg=1	bus=B41463.3	kv=7.2	kVA=25	wdg=2	bus=X_B41463-C.3	kv=0.24	kVA=25	%loadloss=0.7639	%noloadloss=.0851	XHL=2.1	normhkva=25	emerghkva=35
New	Transformer.5905728658-1B	phases=1	wdg=1	bus=5905728658.2	kv=7.2	kVA=15	wdg=2	bus=X_5905728658-B.2	kv=0.24	kVA=15	%loadloss=1.04	%noloadloss=0.34	XHL=1.5	normhkva=15	emerghkva=21
New	Transformer.B15821-1C	phases=1	wdg=1	bus=B15821.3	kv=7.2	kVA=15	wdg=2	bus=X_B15821-C.3	kv=0.24	kVA=15	%loadloss=1.04	%noloadloss=0.34	XHL=1.5	normhkva=15	emerghkva=21
New	Transformer.B18850-1B	phases=1	wdg=1	bus=B18850.2	kv=7.2	kVA=15	wdg=2	bus=X_B18850-B.2	kv=0.24	kVA=15	%loadloss=1.04	%noloadloss=0.34	XHL=1.5	normhkva=15	emerghkva=21
New	Transformer.B18866-1A	phases=1	wdg=1	bus=B18866.1	kv=7.2	kVA=15	wdg=2	bus=X_B18866-A.1	kv=0.24	kVA=15	%loadloss=1.04	%noloadloss=0.34	XHL=1.5	normhkva=15	emerghkva=21
New	Transformer.6060229368-1B	phases=1	wdg=1	bus=6060229368.2	kv=7.2	kVA=25	wdg=2	bus=X_6060229368-B.2	kv=0.24	kVA=25	%loadloss=0.7639	%noloadloss=.0851	XHL=2.1	normhkva=25	emerghkva=35
New	Transformer.B52162-1A	phases=1	wdg=1	bus=B52162.1	kv=7.2	kVA=15	wdg=2	bus=X_B52162-A.1	kv=0.24	kVA=15	%loadloss=1.04	%noloadloss=0.34	XHL=1.5	normhkva=15	emerghkva=21
New	Transformer.G43337-1A	phases=1	wdg=1	bus=G43337.1	kv=7.2	kVA=15	wdg=2	bus=X_G43337-A.1	kv=0.24	kVA=15	%loadloss=1.04	%noloadloss=0.34	XHL=1.5	normhkva=15	emerghkva=21
New	Transformer.B18977-1C	phases=1	wdg=1	bus=B18977.3	kv=7.2	kVA=15	wdg=2	bus=X_B18977-C.3	kv=0.24	kVA=15	%loadloss=1.04	%noloadloss=0.34	XHL=1.5	normhkva=15	emerghkva=21
New	Transformer.B18839-1B	phases=1	wdg=1	bus=B18839.2	kv=7.2	kVA=15	wdg=2	bus=X_B18839-B.2	kv=0.24	kVA=15	%loadloss=1.04	%noloadloss=0.34	XHL=1.5	normhkva=15	emerghkva=21
New	Transformer.B46251-1C	phases=1	wdg=1	bus=B46251.3	kv=7.2	kVA=10	wdg=2	bus=X_B46251-C.3	kv=0.24	kVA=10	%loadloss=1.022	%noloadloss=.3221	XHL=1.707	normhkva=10	emerghkva=14
New	Transformer.B18925-1B	phases=1	wdg=1	bus=B18925.2	kv=7.2	kVA=10	wdg=2	bus=X_B18925-B.2	kv=0.24	kVA=10	%loadloss=1.022	%noloadloss=.3221	XHL=1.707	normhkva=10	emerghkva=14
New	Transformer.B22569-1A	phases=1	wdg=1	bus=B22569.1	kv=7.2	kVA=15	wdg=2	bus=X_B22569-A.1	kv=0.24	kVA=15	%loadloss=1.04	%noloadloss=0.34	XHL=1.5	normhkva=15	emerghkva=21
New	Transformer.B23880-1C	phases=1	wdg=1	bus=B23880.3	kv=7.2	kVA=25	wdg=2	bus=X_B23880-C.3	kv=0.24	kVA=25	%loadloss=0.7639	%noloadloss=.0851	XHL=2.1	normhkva=25	emerghkva=35
New	Transformer.B3066-1C	phases=1	wdg=1	bus=B3066.3	kv=7.2	kVA=25	wdg=2	bus=X_B3066-C.3	kv=0.24	kVA=25	%loadloss=0.7639	%noloadloss=.0851	XHL=2.1	normhkva=25	emerghkva=35
New	Transformer.B63365-1B	phases=1	wdg=1	bus=B63365.2	kv=7.2	kVA=25	wdg=2	bus=X_B63365-B.2	kv=0.24	kVA=25	%loadloss=0.7639	%noloadloss=.0851	XHL=2.1	normhkva=25	emerghkva=35
New	Transformer.B26203-1C	phases=1	wdg=1	bus=B26203.3	kv=7.2	kVA=25	wdg=2	bus=X_B26203-C.3	kv=0.24	kVA=25	%loadloss=0.7639	%noloadloss=.0851	XHL=2.1	normhkva=25	emerghkva=35
New	Transformer.B23869-1C	phases=1	wdg=1	bus=B23869.3	kv=7.2	kVA=15	wdg=2	bus=X_B23869-C.3	kv=0.24	kVA=15	%loadloss=1.04	%noloadloss=0.34	XHL=1.5	normhkva=15	emerghkva=21
New	Transformer.B56446-1A	phases=1	wdg=1	bus=B56446.1	kv=7.2	kVA=15	wdg=2	bus=X_B56446-A.1	kv=0.24	kVA=15	%loadloss=1.04	%noloadloss=0.34	XHL=1.5	normhkva=15	emerghkva=21
New	Transformer.B18986-1C	phases=1	wdg=1	bus=B18986.3	kv=7.2	kVA=25	wdg=2	bus=X_B18986-C.3	kv=0.24	kVA=25	%loadloss=0.7639	%noloadloss=.0851	XHL=2.1	normhkva=25	emerghkva=35
New	Transformer.B13651-1A	phases=1	wdg=1	bus=B13651.1	kv=7.2	kVA=38	wdg=2	bus=X_B13651-A.1	kv=0.24	kVA=38	%loadloss=0.7221	%noloadloss=.2423	XHL=1.5158	normhkva=37.5	emerghkva=53.2
New	Transformer.6034628876-1C	phases=1	wdg=1	bus=6034628876.3	kv=7.2	kVA=25	wdg=2	bus=X_6034628876-C.3	kv=0.24	kVA=25	%loadloss=0.7639	%noloadloss=.0851	XHL=2.1	normhkva=25	emerghkva=35
New	Transformer.B17575-1C	phases=1	wdg=1	bus=B17575.3	kv=7.2	kVA=25	wdg=2	bus=X_B17575-C.3	kv=0.24	kVA=25	%loadloss=0.7639	%noloadloss=.0851	XHL=2.1	normhkva=25	emerghkva=35
New	Transformer.B10925-1C	phases=1	wdg=1	bus=B10925.3	kv=7.2	kVA=15	wdg=2	bus=X_B10925-C.3	kv=0.24	kVA=15	%loadloss=1.04	%noloadloss=0.34	XHL=1.5	normhkva=15	emerghkva=21
New	Transformer.B23406-1A	phases=1	wdg=1	bus=B23406.1	kv=7.2	kVA=25	wdg=2	bus=X_B23406-A.1	kv=0.24	kVA=25	%loadloss=0.7639	%noloadloss=.0851	XHL=2.1	normhkva=25	emerghkva=35
New	Transformer.B4594-1C	phases=1	wdg=1	bus=B4594.3	kv=7.2	kVA=38	wdg=2	bus=X_B4594-C.3	kv=0.24	kVA=38	%loadloss=0.7221	%noloadloss=.2423	XHL=1.5158	normhkva=37.5	emerghkva=53.2
New	Transformer.6018228840-1C	phases=1	wdg=1	bus=6018228840.3	kv=7.2	kVA=50	wdg=2	bus=X_6018228840-C.3	kv=0.24	kVA=50	%loadloss=0.7380	%noloadloss=.1987	XHL=1.7532	normhkva=50	emerghkva=70
New	Transformer.B5185-1C	phases=1	wdg=1	bus=B5185.3	kv=7.2	kVA=25	wdg=2	bus=X_B5185-C.3	kv=0.24	kVA=25	%loadloss=0.7639	%noloadloss=.0851	XHL=2.1	normhkva=25	emerghkva=35
New	Transformer.B48180-1C	phases=1	wdg=1	bus=B48180.3	kv=7.2	kVA=15	wdg=2	bus=X_B48180-C.3	kv=0.24	kVA=15	%loadloss=1.04	%noloadloss=0.34	XHL=1.5	normhkva=15	emerghkva=21
New	Transformer.G35573-1A	phases=1	wdg=1	bus=G35573.1	kv=7.2	kVA=38	wdg=2	bus=X_G35573-A.1	kv=0.24	kVA=38	%loadloss=0.7221	%noloadloss=.2423	XHL=1.5158	normhkva=37.5	emerghkva=53.2
New	Transformer.G35573-1B	phases=1	wdg=1	bus=G35573.2	kv=7.2	kVA=38	wdg=2	bus=X_G35573-B.2	kv=0.24	kVA=38	%loadloss=0.7221	%noloadloss=.2423	XHL=1.5158	normhkva=37.5	emerghkva=53.2
New	Transformer.G35573-1C	phases=1	wdg=1	bus=G35573.3	kv=7.2	kVA=38	wdg=2	bus=X_G35573-C.3	kv=0.24	kVA=38	%loadloss=0.7221	%noloadloss=.2423	XHL=1.5158	normhkva=37.5	emerghkva=53.2
New	Transformer.B59582-1C	phases=1	wdg=1	bus=B59582.3	kv=7.2	kVA=15	wdg=2	bus=X_B59582-C.3	kv=0.24	kVA=15	%loadloss=1.04	%noloadloss=0.34	XHL=1.5	normhkva=15	emerghkva=21
New	Transformer.G33468-1B	phases=1	wdg=1	bus=G33468.2	kv=7.2	kVA=15	wdg=2	bus=X_G33468-B.2	kv=0.24	kVA=15	%loadloss=1.04	%noloadloss=0.34	XHL=1.5	normhkva=15	emerghkva=21
New	Transformer.B4861-1B	phases=1	wdg=1	bus=B4861.2	kv=7.2	kVA=38	wdg=2	bus=X_B4861-B.2	kv=0.24	kVA=38	%loadloss=0.7221	%noloadloss=.2423	XHL=1.5158	normhkva=37.5	emerghkva=53.2
New	Transformer.6000828811-1A	phases=1	wdg=1	bus=6000828811.1	kv=7.2	kVA=40	wdg=2	bus=X_6000828811-A.1	kv=0.24	kVA=40	%loadloss=0.7221	%noloadloss=.2423	XHL=1.5158	normhkva=40	emerghkva=56
New	Transformer.B18995-1C	phases=1	wdg=1	bus=B18995.3	kv=7.2	kVA=15	wdg=2	bus=X_B18995-C.3	kv=0.24	kVA=15	%loadloss=1.04	%noloadloss=0.34	XHL=1.5	normhkva=15	emerghkva=21
New	Transformer.G42394-1C	phases=1	wdg=1	bus=G42394.3	kv=7.2	kVA=15	wdg=2	bus=X_G42394-C.3	kv=0.24	kVA=15	%loadloss=1.04	%noloadloss=0.34	XHL=1.5	normhkva=15	emerghkva=21
New	Transformer.B36183-1C	phases=1	wdg=1	bus=B36183.3	kv=7.2	kVA=15	wdg=2	bus=X_B36183-C.3	kv=0.24	kVA=15	%loadloss=1.04	%noloadloss=0.34	XHL=1.5	normhkva=15	emerghkva=21
New	Transformer.B62294-1C	phases=1	wdg=1	bus=B62294.3	kv=7.2	kVA=25	wdg=2	bus=X_B62294-C.3	kv=0.24	kVA=25	%loadloss=0.7639	%noloadloss=.0851	XHL=2.1	normhkva=25	emerghkva=35
New	Transformer.G35320-1B	phases=1	wdg=1	bus=G35320.2	kv=7.2	kVA=15	wdg=2	bus=X_G35320-B.2	kv=0.24	kVA=15	%loadloss=1.04	%noloadloss=0.34	XHL=1.5	normhkva=15	emerghkva=21
New	Transformer.G40623-1A	phases=1	wdg=1	bus=G40623.1	kv=7.2	kVA=25	wdg=2	bus=X_G40623-A.1	kv=0.24	kVA=25	%loadloss=0.7639	%noloadloss=.0851	XHL=2.1	normhkva=25	emerghkva=35
New	Transformer.B34541-1A	phases=1	wdg=1	bus=B34541.1	kv=7.2	kVA=15	wdg=2	bus=X_B34541-A.1	kv=0.24	kVA=15	%loadloss=1.04	%noloadloss=0.34	XHL=1.5	normhkva=15	emerghkva=21
New	Transformer.B19071-1C	phases=1	wdg=1	bus=B19071.3	kv=7.2	kVA=15	wdg=2	bus=X_B19071-C.3	kv=0.24	kVA=15	%loadloss=1.04	%noloadloss=0.34	XHL=1.5	normhkva=15	emerghkva=21
New	Transformer.B39820-1C	phases=1	wdg=1	bus=B39820.3	kv=7.2	kVA=25	wdg=2	bus=X_B39820-C.3	kv=0.24	kVA=25	%loadloss=0.7639	%noloadloss=.0851	XHL=2.1	normhkva=25	emerghkva=35
New	Transformer.5857829226-1C	phases=1	wdg=1	bus=5857829226.3	kv=7.2	kVA=25	wdg=2	bus=X_5857829226-C.3	kv=0.24	kVA=25	%loadloss=0.7639	%noloadloss=.0851	XHL=2.1	normhkva=25	emerghkva=35
New	Transformer.5920428274-1C	phases=1	wdg=1	bus=5920428274.3	kv=7.2	kVA=25	wdg=2	bus=X_5920428274-C.3	kv=0.24	kVA=25	%loadloss=0.7639	%noloadloss=.0851	XHL=2.1	normhkva=25	emerghkva=35
New	Transformer.B24281-1C	phases=1	wdg=1	bus=B24281.3	kv=7.2	kVA=15	wdg=2	bus=X_B24281-C.3	kv=0.24	kVA=15	%loadloss=1.04	%noloadloss=0.34	XHL=1.5	normhkva=15	emerghkva=21
New	Transformer.B18912-1B	phases=1	wdg=1	bus=B18912.2	kv=7.2	kVA=25	wdg=2	bus=X_B18912-B.2	kv=0.24	kVA=25	%loadloss=0.7639	%noloadloss=.0851	XHL=2.1	normhkva=25	emerghkva=35
New	Transformer.B60940-1C	phases=1	wdg=1	bus=B60940.3	kv=7.2	kVA=25	wdg=2	bus=X_B60940-C.3	kv=0.24	kVA=25	%loadloss=0.7639	%noloadloss=.0851	XHL=2.1	normhkva=25	emerghkva=35
New	Transformer.B4579-1A	phases=1	wdg=1	bus=B4579.1	kv=7.2	kVA=20	wdg=2	bus=X_B4579-A.1	kv=0.24	kVA=20	%loadloss=1.04	%noloadloss=0.34	XHL=1.5	normhkva=20	emerghkva=28
New	Transformer.B4579-1C	phases=1	wdg=1	bus=B4579.3	kv=7.2	kVA=20	wdg=2	bus=X_B4579-C.3	kv=0.24	kVA=20	%loadloss=1.04	%noloadloss=0.34	XHL=1.5	normhkva=20	emerghkva=28
New	Transformer.B4994-1A	phases=1	wdg=1	bus=B4994.1	kv=7.2	kVA=15	wdg=2	bus=X_B4994-A.1	kv=0.24	kVA=15	%loadloss=1.04	%noloadloss=0.34	XHL=1.5	normhkva=15	emerghkva=21
New	Transformer.B61632-1A	phases=1	wdg=1	bus=B61632.1	kv=7.2	kVA=100	wdg=2	bus=X_B61632-A.1	kv=0.24	kVA=100	%loadloss=0.7237	%noloadloss=.1524	XHL=2.1557	normhkva=100	emerghkva=140
New	Transformer.B61632-1B	phases=1	wdg=1	bus=B61632.2	kv=7.2	kVA=100	wdg=2	bus=X_B61632-B.2	kv=0.24	kVA=100	%loadloss=0.7237	%noloadloss=.1524	XHL=2.1557	normhkva=100	emerghkva=140
New	Transformer.B61632-1C	phases=1	wdg=1	bus=B61632.3	kv=7.2	kVA=100	wdg=2	bus=X_B61632-C.3	kv=0.24	kVA=100	%loadloss=0.7237	%noloadloss=.1524	XHL=2.1557	normhkva=100	emerghkva=140
New	Transformer.B18886-1B	phases=1	wdg=1	bus=B18886.2	kv=7.2	kVA=15	wdg=2	bus=X_B18886-B.2	kv=0.24	kVA=15	%loadloss=1.04	%noloadloss=0.34	XHL=1.5	normhkva=15	emerghkva=21
New	Transformer.5979429639-1B	phases=1	wdg=1	bus=5979429639.2	kv=7.2	kVA=25	wdg=2	bus=X_5979429639-B.2	kv=0.24	kVA=25	%loadloss=0.7639	%noloadloss=.0851	XHL=2.1	normhkva=25	emerghkva=35
New	Transformer.B18941-1A	phases=1	wdg=1	bus=B18941.1	kv=7.2	kVA=38	wdg=2	bus=X_B18941-A.1	kv=0.24	kVA=38	%loadloss=0.7221	%noloadloss=.2423	XHL=1.5158	normhkva=37.5	emerghkva=53.2
New	Transformer.G40138-1C	phases=1	wdg=1	bus=G40138.3	kv=7.2	kVA=15	wdg=2	bus=X_G40138-C.3	kv=0.24	kVA=15	%loadloss=1.04	%noloadloss=0.34	XHL=1.5	normhkva=15	emerghkva=21
New	Transformer.B18855-1B	phases=1	wdg=1	bus=B18855.2	kv=7.2	kVA=15	wdg=2	bus=X_B18855-B.2	kv=0.24	kVA=15	%loadloss=1.04	%noloadloss=0.34	XHL=1.5	normhkva=15	emerghkva=21
New	Transformer.B4673-1A	phases=1	wdg=1	bus=B4673.1	kv=7.2	kVA=25	wdg=2	bus=X_B4673-A.1	kv=0.24	kVA=25	%loadloss=0.7639	%noloadloss=.0851	XHL=2.1	normhkva=25	emerghkva=35
New	Transformer.B19064-1C	phases=1	wdg=1	bus=B19064.3	kv=7.2	kVA=15	wdg=2	bus=X_B19064-C.3	kv=0.24	kVA=15	%loadloss=1.04	%noloadloss=0.34	XHL=1.5	normhkva=15	emerghkva=21
New	Transformer.B45445-1C	phases=1	wdg=1	bus=B45445.3	kv=7.2	kVA=10	wdg=2	bus=X_B45445-C.3	kv=0.24	kVA=10	%loadloss=1.022	%noloadloss=.3221	XHL=1.707	normhkva=10	emerghkva=14
New	Transformer.B57500-1B	phases=1	wdg=1	bus=B57500.2	kv=7.2	kVA=15	wdg=2	bus=X_B57500-B.2	kv=0.24	kVA=15	%loadloss=1.04	%noloadloss=0.34	XHL=1.5	normhkva=15	emerghkva=21
New	Transformer.B14324-1A	phases=1	wdg=1	bus=B14324.1	kv=7.2	kVA=15	wdg=2	bus=X_B14324-A.1	kv=0.24	kVA=15	%loadloss=1.04	%noloadloss=0.34	XHL=1.5	normhkva=15	emerghkva=21
New	Transformer.B60757-1C	phases=1	wdg=1	bus=B60757.3	kv=7.2	kVA=15	wdg=2	bus=X_B60757-C.3	kv=0.24	kVA=15	%loadloss=1.04	%noloadloss=0.34	XHL=1.5	normhkva=15	emerghkva=21
New	Transformer.G34723-1C	phases=1	wdg=1	bus=G34723.3	kv=7.2	kVA=15	wdg=2	bus=X_G34723-C.3	kv=0.24	kVA=15	%loadloss=1.04	%noloadloss=0.34	XHL=1.5	normhkva=15	emerghkva=21
New	Transformer.B22571-1C	phases=1	wdg=1	bus=B22571.3	kv=7.2	kVA=15	wdg=2	bus=X_B22571-C.3	kv=0.24	kVA=15	%loadloss=1.04	%noloadloss=0.34	XHL=1.5	normhkva=15	emerghkva=21
New	Transformer.B13555-1A	phases=1	wdg=1	bus=B13555.1	kv=7.2	kVA=25	wdg=2	bus=X_B13555-A.1	kv=0.24	kVA=25	%loadloss=0.7639	%noloadloss=.0851	XHL=2.1	normhkva=25	emerghkva=35
New	Transformer.B23889-1C	phases=1	wdg=1	bus=B23889.3	kv=7.2	kVA=15	wdg=2	bus=X_B23889-C.3	kv=0.24	kVA=15	%loadloss=1.04	%noloadloss=0.34	XHL=1.5	normhkva=15	emerghkva=21
New	Transformer.B43440-1B	phases=1	wdg=1	bus=B43440.2	kv=7.2	kVA=38	wdg=2	bus=X_B43440-B.2	kv=0.24	kVA=38	%loadloss=0.7221	%noloadloss=.2423	XHL=1.5158	normhkva=37.5	emerghkva=53.2
New	Transformer.5904428572-1B	phases=1	wdg=1	bus=5904428572.2	kv=7.2	kVA=15	wdg=2	bus=X_5904428572-B.2	kv=0.24	kVA=15	%loadloss=1.04	%noloadloss=0.34	XHL=1.5	normhkva=15	emerghkva=21
New	Transformer.B41085-1B	phases=1	wdg=1	bus=B41085.2	kv=7.2	kVA=25	wdg=2	bus=X_B41085-B.2	kv=0.24	kVA=25	%loadloss=0.7639	%noloadloss=.0851	XHL=2.1	normhkva=25	emerghkva=35
New	Transformer.B41085-1C	phases=1	wdg=1	bus=B41085.3	kv=7.2	kVA=25	wdg=2	bus=X_B41085-C.3	kv=0.24	kVA=25	%loadloss=0.7639	%noloadloss=.0851	XHL=2.1	normhkva=25	emerghkva=35
New	Transformer.B19021-1A	phases=1	wdg=1	bus=B19021.1	kv=7.2	kVA=15	wdg=2	bus=X_B19021-A.1	kv=0.24	kVA=15	%loadloss=1.04	%noloadloss=0.34	XHL=1.5	normhkva=15	emerghkva=21
New	Transformer.6053129341-1B	phases=1	wdg=1	bus=6053129341.2	kv=7.2	kVA=25	wdg=2	bus=X_6053129341-B.2	kv=0.24	kVA=25	%loadloss=0.7639	%noloadloss=.0851	XHL=2.1	normhkva=25	emerghkva=35
New	Transformer.6059129162-1C	phases=1	wdg=1	bus=6059129162.3	kv=7.2	kVA=25	wdg=2	bus=X_6059129162-C.3	kv=0.24	kVA=25	%loadloss=0.7639	%noloadloss=.0851	XHL=2.1	normhkva=25	emerghkva=35
New	Transformer.B60934-1C	phases=1	wdg=1	bus=B60934.3	kv=7.2	kVA=15	wdg=2	bus=X_B60934-C.3	kv=0.24	kVA=15	%loadloss=1.04	%noloadloss=0.34	XHL=1.5	normhkva=15	emerghkva=21
New	Transformer.5993629800-1B	phases=1	wdg=1	bus=5993629800.2	kv=7.2	kVA=25	wdg=2	bus=X_5993629800-B.2	kv=0.24	kVA=25	%loadloss=0.7639	%noloadloss=.0851	XHL=2.1	normhkva=25	emerghkva=35
New	Transformer.B63785-1C	phases=1	wdg=1	bus=B63785.3	kv=7.2	kVA=15	wdg=2	bus=X_B63785-C.3	kv=0.24	kVA=15	%loadloss=1.04	%noloadloss=0.34	XHL=1.5	normhkva=15	emerghkva=21
New	Transformer.B59172-1B	phases=1	wdg=1	bus=B59172.2	kv=7.2	kVA=25	wdg=2	bus=X_B59172-B.2	kv=0.24	kVA=25	%loadloss=0.7639	%noloadloss=.0851	XHL=2.1	normhkva=25	emerghkva=35
New	Transformer.5962929303-1B	phases=1	wdg=1	bus=5962929303.2	kv=7.2	kVA=25	wdg=2	bus=X_5962929303-B.2	kv=0.24	kVA=25	%loadloss=0.7639	%noloadloss=.0851	XHL=2.1	normhkva=25	emerghkva=35
New	Transformer.B4826-1B	phases=1	wdg=1	bus=B4826.2	kv=7.2	kVA=15	wdg=2	bus=X_B4826-B.2	kv=0.24	kVA=15	%loadloss=1.04	%noloadloss=0.34	XHL=1.5	normhkva=15	emerghkva=21
New	Transformer.B4826-1C	phases=1	wdg=1	bus=B4826.3	kv=7.2	kVA=15	wdg=2	bus=X_B4826-C.3	kv=0.24	kVA=15	%loadloss=1.04	%noloadloss=0.34	XHL=1.5	normhkva=15	emerghkva=21
New	Transformer.B28551-1B	phases=1	wdg=1	bus=B28551.2	kv=7.2	kVA=10	wdg=2	bus=X_B28551-B.2	kv=0.24	kVA=10	%loadloss=1.022	%noloadloss=.3221	XHL=1.707	normhkva=10	emerghkva=14
New	Transformer.B28551-1C	phases=1	wdg=1	bus=B28551.3	kv=7.2	kVA=10	wdg=2	bus=X_B28551-C.3	kv=0.24	kVA=10	%loadloss=1.022	%noloadloss=.3221	XHL=1.707	normhkva=10	emerghkva=14
New	Transformer.B4795-1C	phases=1	wdg=1	bus=B4795.3	kv=7.2	kVA=25	wdg=2	bus=X_B4795-C.3	kv=0.24	kVA=25	%loadloss=0.7639	%noloadloss=.0851	XHL=2.1	normhkva=25	emerghkva=35
New	Transformer.B5186-1B	phases=1	wdg=1	bus=B5186.2	kv=7.2	kVA=15	wdg=2	bus=X_B5186-B.2	kv=0.24	kVA=15	%loadloss=1.04	%noloadloss=0.34	XHL=1.5	normhkva=15	emerghkva=21
New	Transformer.B5193-1B	phases=1	wdg=1	bus=B5193.2	kv=7.2	kVA=15	wdg=2	bus=X_B5193-B.2	kv=0.24	kVA=15	%loadloss=1.04	%noloadloss=0.34	XHL=1.5	normhkva=15	emerghkva=21
New	Transformer.B41861-1B	phases=1	wdg=1	bus=B41861.2	kv=7.2	kVA=25	wdg=2	bus=X_B41861-B.2	kv=0.24	kVA=25	%loadloss=0.7639	%noloadloss=.0851	XHL=2.1	normhkva=25	emerghkva=35
New	Transformer.B56325-1A	phases=1	wdg=1	bus=B56325.1	kv=7.2	kVA=167	wdg=2	bus=X_B56325-A.1	kv=0.24	kVA=167	%loadloss=0.598	%noloadloss=0.2	XHL=1.5	normhkva=167	emerghkva=233.8
New	Transformer.B56325-1B	phases=1	wdg=1	bus=B56325.2	kv=7.2	kVA=167	wdg=2	bus=X_B56325-B.2	kv=0.24	kVA=167	%loadloss=0.598	%noloadloss=0.2	XHL=1.5	normhkva=167	emerghkva=233.8
New	Transformer.B56325-1C	phases=1	wdg=1	bus=B56325.3	kv=7.2	kVA=167	wdg=2	bus=X_B56325-C.3	kv=0.24	kVA=167	%loadloss=0.598	%noloadloss=0.2	XHL=1.5	normhkva=167	emerghkva=233.8
New	Transformer.G42979-1C	phases=1	wdg=1	bus=G42979.3	kv=7.2	kVA=25	wdg=2	bus=X_G42979-C.3	kv=0.24	kVA=25	%loadloss=0.7639	%noloadloss=.0851	XHL=2.1	normhkva=25	emerghkva=35
New	Transformer.5839828569-1A	phases=1	wdg=1	bus=5839828569.1	kv=7.2	kVA=15	wdg=2	bus=X_5839828569-A.1	kv=0.24	kVA=15	%loadloss=1.04	%noloadloss=0.34	XHL=1.5	normhkva=15	emerghkva=21
New	Transformer.5839828569-1B	phases=1	wdg=1	bus=5839828569.2	kv=7.2	kVA=15	wdg=2	bus=X_5839828569-B.2	kv=0.24	kVA=15	%loadloss=1.04	%noloadloss=0.34	XHL=1.5	normhkva=15	emerghkva=21
New	Transformer.5839828569-1C	phases=1	wdg=1	bus=5839828569.3	kv=7.2	kVA=15	wdg=2	bus=X_5839828569-C.3	kv=0.24	kVA=15	%loadloss=1.04	%noloadloss=0.34	XHL=1.5	normhkva=15	emerghkva=21
New	Transformer.B60930-1C	phases=1	wdg=1	bus=B60930.3	kv=7.2	kVA=25	wdg=2	bus=X_B60930-C.3	kv=0.24	kVA=25	%loadloss=0.7639	%noloadloss=.0851	XHL=2.1	normhkva=25	emerghkva=35
New	Transformer.B61236-1C	phases=1	wdg=1	bus=B61236.3	kv=7.2	kVA=15	wdg=2	bus=X_B61236-C.3	kv=0.24	kVA=15	%loadloss=1.04	%noloadloss=0.34	XHL=1.5	normhkva=15	emerghkva=21
New	Transformer.B18999-1C	phases=1	wdg=1	bus=B18999.3	kv=7.2	kVA=15	wdg=2	bus=X_B18999-C.3	kv=0.24	kVA=15	%loadloss=1.04	%noloadloss=0.34	XHL=1.5	normhkva=15	emerghkva=21
New	Transformer.B4811-1A	phases=1	wdg=1	bus=B4811.1	kv=7.2	kVA=32	wdg=2	bus=X_B4811-A.1	kv=0.24	kVA=32	%loadloss=0.7639	%noloadloss=.0851	XHL=2.1	normhkva=32.5	emerghkva=44.8
New	Transformer.B4811-1B	phases=1	wdg=1	bus=B4811.2	kv=7.2	kVA=32	wdg=2	bus=X_B4811-B.2	kv=0.24	kVA=32	%loadloss=0.7639	%noloadloss=.0851	XHL=2.1	normhkva=32.5	emerghkva=44.8
New	Transformer.B37083-1B	phases=1	wdg=1	bus=B37083.2	kv=7.2	kVA=25	wdg=2	bus=X_B37083-B.2	kv=0.24	kVA=25	%loadloss=0.7639	%noloadloss=.0851	XHL=2.1	normhkva=25	emerghkva=35
New	Transformer.B4965-1B	phases=1	wdg=1	bus=B4965.2	kv=7.2	kVA=50	wdg=2	bus=X_B4965-B.2	kv=0.24	kVA=50	%loadloss=0.7380	%noloadloss=.1987	XHL=1.7532	normhkva=50	emerghkva=70
New	Transformer.B41906-1A	phases=1	wdg=1	bus=B41906.1	kv=7.2	kVA=10	wdg=2	bus=X_B41906-A.1	kv=0.24	kVA=10	%loadloss=1.022	%noloadloss=.3221	XHL=1.707	normhkva=10	emerghkva=14
New	Transformer.B24506-1C	phases=1	wdg=1	bus=B24506.3	kv=7.2	kVA=15	wdg=2	bus=X_B24506-C.3	kv=0.24	kVA=15	%loadloss=1.04	%noloadloss=0.34	XHL=1.5	normhkva=15	emerghkva=21
New	Transformer.B4729-1C	phases=1	wdg=1	bus=B4729.3	kv=7.2	kVA=25	wdg=2	bus=X_B4729-C.3	kv=0.24	kVA=25	%loadloss=0.7639	%noloadloss=.0851	XHL=2.1	normhkva=25	emerghkva=35
New	Transformer.B41547-1B	phases=1	wdg=1	bus=B41547.2	kv=7.2	kVA=15	wdg=2	bus=X_B41547-B.2	kv=0.24	kVA=15	%loadloss=1.04	%noloadloss=0.34	XHL=1.5	normhkva=15	emerghkva=21
New	Transformer.B4586-1A	phases=1	wdg=1	bus=B4586.1	kv=7.2	kVA=25	wdg=2	bus=X_B4586-A.1	kv=0.24	kVA=25	%loadloss=0.7639	%noloadloss=.0851	XHL=2.1	normhkva=25	emerghkva=35
New	Transformer.B61759-1C	phases=1	wdg=1	bus=B61759.3	kv=7.2	kVA=25	wdg=2	bus=X_B61759-C.3	kv=0.24	kVA=25	%loadloss=0.7639	%noloadloss=.0851	XHL=2.1	normhkva=25	emerghkva=35
New	Transformer.B18914-1A	phases=1	wdg=1	bus=B18914.1	kv=7.2	kVA=25	wdg=2	bus=X_B18914-A.1	kv=0.24	kVA=25	%loadloss=0.7639	%noloadloss=.0851	XHL=2.1	normhkva=25	emerghkva=35
New	Transformer.B16658-1A	phases=1	wdg=1	bus=B16658.1	kv=7.2	kVA=15	wdg=2	bus=X_B16658-A.1	kv=0.24	kVA=15	%loadloss=1.04	%noloadloss=0.34	XHL=1.5	normhkva=15	emerghkva=21
New	Transformer.B27838-1C	phases=1	wdg=1	bus=B27838.3	kv=7.2	kVA=25	wdg=2	bus=X_B27838-C.3	kv=0.24	kVA=25	%loadloss=0.7639	%noloadloss=.0851	XHL=2.1	normhkva=25	emerghkva=35
New	Transformer.B12329-1A	phases=1	wdg=1	bus=B12329.1	kv=7.2	kVA=10	wdg=2	bus=X_B12329-A.1	kv=0.24	kVA=10	%loadloss=1.022	%noloadloss=.3221	XHL=1.707	normhkva=10	emerghkva=14
New	Transformer.B4802-1A	phases=1	wdg=1	bus=B4802.1	kv=7.2	kVA=25	wdg=2	bus=X_B4802-A.1	kv=0.24	kVA=25	%loadloss=0.7639	%noloadloss=.0851	XHL=2.1	normhkva=25	emerghkva=35
New	Transformer.6084829720-1A	phases=1	wdg=1	bus=6084829720.1	kv=7.2	kVA=5	wdg=2	bus=X_6084829720-A.1	kv=0.24	kVA=5	%loadloss=1.022	%noloadloss=.3221	XHL=1.707	normhkva=5	emerghkva=7
New	Transformer.B52170-1C	phases=1	wdg=1	bus=B52170.3	kv=7.2	kVA=15	wdg=2	bus=X_B52170-C.3	kv=0.24	kVA=15	%loadloss=1.04	%noloadloss=0.34	XHL=1.5	normhkva=15	emerghkva=21
New	Transformer.B15828-1C	phases=1	wdg=1	bus=B15828.3	kv=7.2	kVA=15	wdg=2	bus=X_B15828-C.3	kv=0.24	kVA=15	%loadloss=1.04	%noloadloss=0.34	XHL=1.5	normhkva=15	emerghkva=21
New	Transformer.B60889-1B	phases=1	wdg=1	bus=B60889.2	kv=7.2	kVA=25	wdg=2	bus=X_B60889-B.2	kv=0.24	kVA=25	%loadloss=0.7639	%noloadloss=.0851	XHL=2.1	normhkva=25	emerghkva=35
New	Transformer.B19066-1C	phases=1	wdg=1	bus=B19066.3	kv=7.2	kVA=15	wdg=2	bus=X_B19066-C.3	kv=0.24	kVA=15	%loadloss=1.04	%noloadloss=0.34	XHL=1.5	normhkva=15	emerghkva=21
New	Transformer.B11365-1B	phases=1	wdg=1	bus=B11365.2	kv=7.2	kVA=20	wdg=2	bus=X_B11365-B.2	kv=0.24	kVA=20	%loadloss=1.04	%noloadloss=0.34	XHL=1.5	normhkva=20	emerghkva=28
New	Transformer.B11365-1C	phases=1	wdg=1	bus=B11365.3	kv=7.2	kVA=20	wdg=2	bus=X_B11365-C.3	kv=0.24	kVA=20	%loadloss=1.04	%noloadloss=0.34	XHL=1.5	normhkva=20	emerghkva=28
New	Transformer.B13657-1C	phases=1	wdg=1	bus=B13657.3	kv=7.2	kVA=38	wdg=2	bus=X_B13657-C.3	kv=0.24	kVA=38	%loadloss=0.7221	%noloadloss=.2423	XHL=1.5158	normhkva=37.5	emerghkva=53.2
New	Transformer.B24275-1C	phases=1	wdg=1	bus=B24275.3	kv=7.2	kVA=25	wdg=2	bus=X_B24275-C.3	kv=0.24	kVA=25	%loadloss=0.7639	%noloadloss=.0851	XHL=2.1	normhkva=25	emerghkva=35
New	Transformer.B5213-1C	phases=1	wdg=1	bus=B5213.3	kv=7.2	kVA=15	wdg=2	bus=X_B5213-C.3	kv=0.24	kVA=15	%loadloss=1.04	%noloadloss=0.34	XHL=1.5	normhkva=15	emerghkva=21
New	Transformer.B63378-1C	phases=1	wdg=1	bus=B63378.3	kv=7.2	kVA=15	wdg=2	bus=X_B63378-C.3	kv=0.24	kVA=15	%loadloss=1.04	%noloadloss=0.34	XHL=1.5	normhkva=15	emerghkva=21
New	Transformer.B29964-1B	phases=1	wdg=1	bus=B29964.2	kv=7.2	kVA=5	wdg=2	bus=X_B29964-B.2	kv=0.24	kVA=5	%loadloss=1.022	%noloadloss=.3221	XHL=1.707	normhkva=5	emerghkva=7
New	Transformer.5911428269-1C	phases=1	wdg=1	bus=5911428269.3	kv=7.2	kVA=25	wdg=2	bus=X_5911428269-C.3	kv=0.24	kVA=25	%loadloss=0.7639	%noloadloss=.0851	XHL=2.1	normhkva=25	emerghkva=35
New	Transformer.B61623-1C	phases=1	wdg=1	bus=B61623.3	kv=7.2	kVA=15	wdg=2	bus=X_B61623-C.3	kv=0.24	kVA=15	%loadloss=1.04	%noloadloss=0.34	XHL=1.5	normhkva=15	emerghkva=21
New	Transformer.5976529574-1B	phases=1	wdg=1	bus=5976529574.2	kv=7.2	kVA=25	wdg=2	bus=X_5976529574-B.2	kv=0.24	kVA=25	%loadloss=0.7639	%noloadloss=.0851	XHL=2.1	normhkva=25	emerghkva=35
New	Transformer.B66452-1A	phases=1	wdg=1	bus=B66452.1	kv=7.2	kVA=25	wdg=2	bus=X_B66452-A.1	kv=0.24	kVA=25	%loadloss=0.7639	%noloadloss=.0851	XHL=2.1	normhkva=25	emerghkva=35
New	Transformer.B29181-1A	phases=1	wdg=1	bus=B29181.1	kv=7.2	kVA=15	wdg=2	bus=X_B29181-A.1	kv=0.24	kVA=15	%loadloss=1.04	%noloadloss=0.34	XHL=1.5	normhkva=15	emerghkva=21
New	Transformer.B59935-1A	phases=1	wdg=1	bus=B59935.1	kv=7.2	kVA=15	wdg=2	bus=X_B59935-A.1	kv=0.24	kVA=15	%loadloss=1.04	%noloadloss=0.34	XHL=1.5	normhkva=15	emerghkva=21
New	Transformer.B14647-1B	phases=1	wdg=1	bus=B14647.2	kv=7.2	kVA=25	wdg=2	bus=X_B14647-B.2	kv=0.24	kVA=25	%loadloss=0.7639	%noloadloss=.0851	XHL=2.1	normhkva=25	emerghkva=35
New	Transformer.B4668-1A	phases=1	wdg=1	bus=B4668.1	kv=7.2	kVA=38	wdg=2	bus=X_B4668-A.1	kv=0.24	kVA=38	%loadloss=0.7221	%noloadloss=.2423	XHL=1.5158	normhkva=37.5	emerghkva=53.2
New	Transformer.B62918-1B	phases=1	wdg=1	bus=B62918.2	kv=7.2	kVA=15	wdg=2	bus=X_B62918-B.2	kv=0.24	kVA=15	%loadloss=1.04	%noloadloss=0.34	XHL=1.5	normhkva=15	emerghkva=21
New	Transformer.B17986-1C	phases=1	wdg=1	bus=B17986.3	kv=7.2	kVA=15	wdg=2	bus=X_B17986-C.3	kv=0.24	kVA=15	%loadloss=1.04	%noloadloss=0.34	XHL=1.5	normhkva=15	emerghkva=21
New	Transformer.B23862-1C	phases=1	wdg=1	bus=B23862.3	kv=7.2	kVA=50	wdg=2	bus=X_B23862-C.3	kv=0.24	kVA=50	%loadloss=0.7380	%noloadloss=.1987	XHL=1.7532	normhkva=50	emerghkva=70
New	Transformer.B13648-1C	phases=1	wdg=1	bus=B13648.3	kv=7.2	kVA=38	wdg=2	bus=X_B13648-C.3	kv=0.24	kVA=38	%loadloss=0.7221	%noloadloss=.2423	XHL=1.5158	normhkva=37.5	emerghkva=53.2
New	Transformer.B13930-1C	phases=1	wdg=1	bus=B13930.3	kv=7.2	kVA=38	wdg=2	bus=X_B13930-C.3	kv=0.24	kVA=38	%loadloss=0.7221	%noloadloss=.2423	XHL=1.5158	normhkva=37.5	emerghkva=53.2
New	Transformer.B43432-1A	phases=1	wdg=1	bus=B43432.1	kv=7.2	kVA=15	wdg=2	bus=X_B43432-A.1	kv=0.24	kVA=15	%loadloss=1.04	%noloadloss=0.34	XHL=1.5	normhkva=15	emerghkva=21
New	Transformer.B4828-1A	phases=1	wdg=1	bus=B4828.1	kv=7.2	kVA=5	wdg=2	bus=X_B4828-A.1	kv=0.24	kVA=5	%loadloss=1.022	%noloadloss=.3221	XHL=1.707	normhkva=5	emerghkva=7
New	Transformer.G33899-1B	phases=1	wdg=1	bus=G33899.2	kv=7.2	kVA=15	wdg=2	bus=X_G33899-B.2	kv=0.24	kVA=15	%loadloss=1.04	%noloadloss=0.34	XHL=1.5	normhkva=15	emerghkva=21
New	Transformer.5869628416-1A	phases=1	wdg=1	bus=5869628416.1	kv=7.2	kVA=38	wdg=2	bus=X_5869628416-A.1	kv=0.24	kVA=38	%loadloss=0.7221	%noloadloss=.2423	XHL=1.5158	normhkva=37.5	emerghkva=53.2
New	Transformer.5869628416-1B	phases=1	wdg=1	bus=5869628416.2	kv=7.2	kVA=38	wdg=2	bus=X_5869628416-B.2	kv=0.24	kVA=38	%loadloss=0.7221	%noloadloss=.2423	XHL=1.5158	normhkva=37.5	emerghkva=53.2
New	Transformer.5869628416-1C	phases=1	wdg=1	bus=5869628416.3	kv=7.2	kVA=38	wdg=2	bus=X_5869628416-C.3	kv=0.24	kVA=38	%loadloss=0.7221	%noloadloss=.2423	XHL=1.5158	normhkva=37.5	emerghkva=53.2
New	Transformer.B13553-1A	phases=1	wdg=1	bus=B13553.1	kv=7.2	kVA=25	wdg=2	bus=X_B13553-A.1	kv=0.24	kVA=25	%loadloss=0.7639	%noloadloss=.0851	XHL=2.1	normhkva=25	emerghkva=35
New	Transformer.B19039-1B	phases=1	wdg=1	bus=B19039.2	kv=7.2	kVA=25	wdg=2	bus=X_B19039-B.2	kv=0.24	kVA=25	%loadloss=0.7639	%noloadloss=.0851	XHL=2.1	normhkva=25	emerghkva=35
New	Transformer.B56614-1A	phases=1	wdg=1	bus=B56614.1	kv=7.2	kVA=15	wdg=2	bus=X_B56614-A.1	kv=0.24	kVA=15	%loadloss=1.04	%noloadloss=0.34	XHL=1.5	normhkva=15	emerghkva=21
New	Transformer.B17215-1C	phases=1	wdg=1	bus=B17215.3	kv=7.2	kVA=15	wdg=2	bus=X_B17215-C.3	kv=0.24	kVA=15	%loadloss=1.04	%noloadloss=0.34	XHL=1.5	normhkva=15	emerghkva=21
New	Transformer.B56691-1A	phases=1	wdg=1	bus=B56691.1	kv=7.2	kVA=25	wdg=2	bus=X_B56691-A.1	kv=0.24	kVA=25	%loadloss=0.7639	%noloadloss=.0851	XHL=2.1	normhkva=25	emerghkva=35
New	Transformer.6010428821-1C	phases=1	wdg=1	bus=6010428821.3	kv=7.2	kVA=25	wdg=2	bus=X_6010428821-C.3	kv=0.24	kVA=25	%loadloss=0.7639	%noloadloss=.0851	XHL=2.1	normhkva=25	emerghkva=35
New	Transformer.B61608-1C	phases=1	wdg=1	bus=B61608.3	kv=7.2	kVA=15	wdg=2	bus=X_B61608-C.3	kv=0.24	kVA=15	%loadloss=1.04	%noloadloss=0.34	XHL=1.5	normhkva=15	emerghkva=21
New	Transformer.B48184-1C	phases=1	wdg=1	bus=B48184.3	kv=7.2	kVA=15	wdg=2	bus=X_B48184-C.3	kv=0.24	kVA=15	%loadloss=1.04	%noloadloss=0.34	XHL=1.5	normhkva=15	emerghkva=21
New	Transformer.5840028380-1C	phases=1	wdg=1	bus=5840028380.3	kv=7.2	kVA=15	wdg=2	bus=X_5840028380-C.3	kv=0.24	kVA=15	%loadloss=1.04	%noloadloss=0.34	XHL=1.5	normhkva=15	emerghkva=21
New	Transformer.B60931-1C	phases=1	wdg=1	bus=B60931.3	kv=7.2	kVA=25	wdg=2	bus=X_B60931-C.3	kv=0.24	kVA=25	%loadloss=0.7639	%noloadloss=.0851	XHL=2.1	normhkva=25	emerghkva=35
New	Transformer.B4781-1C	phases=1	wdg=1	bus=B4781.3	kv=7.2	kVA=15	wdg=2	bus=X_B4781-C.3	kv=0.24	kVA=15	%loadloss=1.04	%noloadloss=0.34	XHL=1.5	normhkva=15	emerghkva=21
New	Transformer.B59109-1B	phases=1	wdg=1	bus=B59109.2	kv=7.2	kVA=25	wdg=2	bus=X_B59109-B.2	kv=0.24	kVA=25	%loadloss=0.7639	%noloadloss=.0851	XHL=2.1	normhkva=25	emerghkva=35
New	Transformer.B4997-1A	phases=1	wdg=1	bus=B4997.1	kv=7.2	kVA=25	wdg=2	bus=X_B4997-A.1	kv=0.24	kVA=25	%loadloss=0.7639	%noloadloss=.0851	XHL=2.1	normhkva=25	emerghkva=35
New	Transformer.5944828194-1C	phases=1	wdg=1	bus=5944828194.3	kv=7.2	kVA=25	wdg=2	bus=X_5944828194-C.3	kv=0.24	kVA=25	%loadloss=0.7639	%noloadloss=.0851	XHL=2.1	normhkva=25	emerghkva=35
New	Transformer.B56674-1B	phases=1	wdg=1	bus=B56674.2	kv=7.2	kVA=15	wdg=2	bus=X_B56674-B.2	kv=0.24	kVA=15	%loadloss=1.04	%noloadloss=0.34	XHL=1.5	normhkva=15	emerghkva=21
New	Transformer.B55313-1B	phases=1	wdg=1	bus=B55313.2	kv=7.2	kVA=15	wdg=2	bus=X_B55313-B.2	kv=0.24	kVA=15	%loadloss=1.04	%noloadloss=0.34	XHL=1.5	normhkva=15	emerghkva=21
New	Transformer.B4607-1C	phases=1	wdg=1	bus=B4607.3	kv=7.2	kVA=25	wdg=2	bus=X_B4607-C.3	kv=0.24	kVA=25	%loadloss=0.7639	%noloadloss=.0851	XHL=2.1	normhkva=25	emerghkva=35
New	Transformer.B42005-1A	phases=1	wdg=1	bus=B42005.1	kv=7.2	kVA=25	wdg=2	bus=X_B42005-A.1	kv=0.24	kVA=25	%loadloss=0.7639	%noloadloss=.0851	XHL=2.1	normhkva=25	emerghkva=35
New	Transformer.B4731-1C	phases=1	wdg=1	bus=B4731.3	kv=7.2	kVA=25	wdg=2	bus=X_B4731-C.3	kv=0.24	kVA=25	%loadloss=0.7639	%noloadloss=.0851	XHL=2.1	normhkva=25	emerghkva=35
New	Transformer.B44732-1A	phases=1	wdg=1	bus=B44732.1	kv=7.2	kVA=15	wdg=2	bus=X_B44732-A.1	kv=0.24	kVA=15	%loadloss=1.04	%noloadloss=0.34	XHL=1.5	normhkva=15	emerghkva=21
New	Transformer.B57664-1C	phases=1	wdg=1	bus=B57664.3	kv=7.2	kVA=15	wdg=2	bus=X_B57664-C.3	kv=0.24	kVA=15	%loadloss=1.04	%noloadloss=0.34	XHL=1.5	normhkva=15	emerghkva=21
New	Transformer.6012728993-1B	phases=1	wdg=1	bus=6012728993.2	kv=7.2	kVA=38	wdg=2	bus=X_6012728993-B.2	kv=0.24	kVA=38	%loadloss=0.7221	%noloadloss=.2423	XHL=1.5158	normhkva=37.5	emerghkva=53.2
New	Transformer.B41858-1B	phases=1	wdg=1	bus=B41858.2	kv=7.2	kVA=15	wdg=2	bus=X_B41858-B.2	kv=0.24	kVA=15	%loadloss=1.04	%noloadloss=0.34	XHL=1.5	normhkva=15	emerghkva=21
New	Transformer.B39683-1A	phases=1	wdg=1	bus=B39683.1	kv=7.2	kVA=38	wdg=2	bus=X_B39683-A.1	kv=0.24	kVA=38	%loadloss=0.7221	%noloadloss=.2423	XHL=1.5158	normhkva=37.5	emerghkva=53.2
New	Transformer.5925727418-1C	phases=1	wdg=1	bus=5925727418.3	kv=7.2	kVA=25	wdg=2	bus=X_5925727418-C.3	kv=0.24	kVA=25	%loadloss=0.7639	%noloadloss=.0851	XHL=2.1	normhkva=25	emerghkva=35
New	Transformer.B48056-1A	phases=1	wdg=1	bus=B48056.1	kv=7.2	kVA=38	wdg=2	bus=X_B48056-A.1	kv=0.24	kVA=38	%loadloss=0.7221	%noloadloss=.2423	XHL=1.5158	normhkva=37.5	emerghkva=53.2
New	Transformer.B48056-1B	phases=1	wdg=1	bus=B48056.2	kv=7.2	kVA=38	wdg=2	bus=X_B48056-B.2	kv=0.24	kVA=38	%loadloss=0.7221	%noloadloss=.2423	XHL=1.5158	normhkva=37.5	emerghkva=53.2
...