j1_feederfiles/filestoopal/Services.dss
New Line.B13552-1-A_Cust4	phases=1	bus1=X_B13552-A.1	bus2=X_B13552_Cust4-A.1	length=0.1	linecode=1/0A	units=kft
New Line.B13552-1-A_Cust3	phases=1	bus1=X_B13552-A.1	bus2=X_B13552_Cust3-A.1	length=0.1	linecode=1/0A	units=kft
New Line.B13552-1-A_Cust2	phases=1	bus1=X_B13552-A.1	bus2=X_B13552_Cust2-A.1	length=0.1	linecode=1/0A	units=kft
New Line.B13552-1-A_Cust1	phases=1	bus1=X_B13552-A.1	bus2=X_B13552_Cust1-A.1	length=0.1	linecode=1/0A	units=kft
New Line.B34986-1-C_Cust1	phases=1	bus1=X_B34986-C.3	bus2=X_B34986_Cust1-C.3	length=0.1	linecode=1/0A	units=kft
New Line.B45835-1-B_Cust2	phases=1	bus1=X_B45835-B.2	bus2=X_B45835_Cust2-B.2	length=0.1	linecode=1/0A	units=kft
New Line.B45835-1-B_Cust1	phases=1	bus1=X_B45835-B.2	bus2=X_B45835_Cust1-B.2	length=0.1	linecode=1/0A	units=kft
New Line.B50640-1-A_Cust1	phases=1	bus1=X_B50640-A.1	bus2=X_B50640_Cust1-A.1	length=0.1	linecode=1/0A	units=kft
New Line.B4805-1-C_Cust6	phases=1	bus1=X_B4805-C.3	bus2=X_B4805_Cust6-C.3	length=0.1	linecode=1/0A	units=kft
New Line.B4805-1-C_Cust5	phases=1	bus1=X_B4805-C.3	bus2=X_B4805_Cust5-C.3	length=0.1	linecode=1/0A	units=kft
New Line.B4805-1-C_Cust4	phases=1	bus1=X_B4805-C.3	bus2=X_B4805_Cust4-C.3	length=0.1	linecode=1/0A	units=kft
New Line.B4805-1-C_Cust3	phases=1	bus1=X_B4805-C.3	bus2=X_B4805_Cust3-C.3	length=0.1	linecode=1/0A	units=kft
New Line.B4805-1-C_Cust2	phases=1	bus1=X_B4805-C.3	bus2=X_B4805_Cust2-C.3	length=0.1	linecode=1/0A	units=kft
New Line.B4805-1-C_Cust1	phases=1	bus1=X_B4805-C.3	bus2=X_B4805_Cust1-C.3	length=0.1	linecode=1/0A	units=kft
New Line.B4710-1-A_Cust1	phases=1	bus1=X_B4710-A.1	bus2=X_B4710_Cust1-A.1	length=0.1	linecode=1/0A	units=kft
New Line.B4859-1-A_Cust3	phases=1	bus1=X_B4859-A.1	bus2=X_B4859_Cust3-A.1	length=0.1	linecode=1/0A	units=kft
New Line.B4859-1-A_Cust2	phases=1	bus1=X_B4859-A.1	bus2=X_B4859_Cust2-A.1	length=0.1	linecode=1/0A	units=kft
New Line.B4859-1-A_Cust1	phases=1	bus1=X_B4859-A.1	bus2=X_B4859_Cust1-A.1	length=0.1	linecode=1/0A	units=kft
New Line.B4859-1-B_Cust3	phases=1	bus1=X_B4859-B.2	bus2=X_B4859_Cust3-B.2	length=0.1	linecode=1/0A	units=kft
New Line.B4859-1-B_Cust2	phases=1	bus1=X_B4859-B.2	bus2=X_B4859_Cust2-B.2	length=0.1	linecode=1/0A	units=kft
New Line.B4859-1-B_Cust1	phases=1	bus1=X_B4859-B.2	bus2=X_B4859_Cust1-B.2	length=0.1	linecode=1/0A	units=kft
New Line.B4859-1-C_Cust3	phases=1	bus1=X_B4859-C.3	bus2=X_B4859_Cust3-C.3	length=0.1	linecode=1/0A	units=kft
New Line.B4859-1-C_Cust2	phases=1	bus1=X_B4859-C.3	bus2=X_B4859_Cust2-C.3	length=0.1	linecode=1/0A	units=kft
New Line.B4859-1-C_Cust1	phases=1	bus1=X_B4859-C.3	bus2=X_B4859_Cust1-C.3	length=0.1	linecode=1/0A	units=kft
New Line.B41240-1-A_Cust1	phases=1	bus1=X_B41240-A.1	bus2=X_B41240_Cust1-A.1	length=0.1	linecode=1/0A	units=kft
New Line.B55546-1-C_Cust1	phases=1	bus1=X_B55546-C.3	bus2=X_B55546_Cust1-C.3	length=0.1	linecode=1/0A	units=kft
New Line.B18979-1-C_Cust2	phases=1	bus1=X_B18979-C.3	bus2=X_B18979_Cust2-C.3	length=0.1	linecode=1/0A	units=kft
New Line.B18979-1-C_Cust1	phases=1	bus1=X_B18979-C.3	bus2=X_B18979_Cust1-C.3	length=0.1	linecode=1/0A	units=kft
New Line.B4982-1-B_Cust2	phases=1	bus1=X_B4982-B.2	bus2=X_B4982_Cust2-B.2	length=0.1	linecode=1/0A	units=kft
New Line.B4982-1-B_Cust1	phases=1	bus1=X_B4982-B.2	bus2=X_B4982_Cust1-B.2	length=0.1	linecode=1/0A	units=kft
New Line.B18902-1-A_Cust2	phases=1	bus1=X_B18902-A.1	bus2=X_B18902_Cust2-A.1	length=0.1	linecode=1/0A	units=kft
New Line.B18902-1-A_Cust1	phases=1	bus1=X_B18902-A.1	bus2=X_B18902_Cust1-A.1	length=0.1	linecode=1/0A	units=kft
New Line.B2532-1-A_Cust1	phases=1	bus1=X_B2532-A.1	bus2=X_B2532_Cust1-A.1	length=0.1	linecode=1/0A	units=kft
New Line.B47668-1-A_Cust1	phases=1	bus1=X_B47668-A.1	bus2=X_B47668_Cust1-A.1	length=0.1	linecode=1/0A	units=kft
New Line.B47668-1-B_Cust1	phases=1	bus1=X_B47668-B.2	bus2=X_B47668_Cust1-B.2	length=0.1	linecode=1/0A	units=kft
New Line.B47668-1-C_Cust1	phases=1	bus1=X_B47668-C.3	bus2=X_B47668_Cust1-C.3	length=0.1	linecode=1/0A	units=kft
New Line.B4891-1-C_Cust3	phases=1	bus1=X_B4891-C.3	bus2=X_B4891_Cust3-C.3	length=0.1	linecode=1/0A	units=kft
New Line.B4891-1-C_Cust2	phases=1	bus1=X_B4891-C.3	bus2=X_B4891_Cust2-C.3	length=0.1	linecode=1/0A	units=kft
New Line.B4891-1-C_Cust1	phases=1	bus1=X_B4891-C.3	bus2=X_B4891_Cust1-C.3	length=0.1	linecode=1/0A	units=kft
New Line.B18858-1-B_Cust1	phases=1	bus1=X_B18858-B.2	bus2=X_B18858_Cust1-B.2	length=0.1	linecode=1/0A	units=kft
New Line.5851228580-1-C_Cust1	phases=1	bus1=X_5851228580-C.3	bus2=X_5851228580_Cust1-C.3	length=0.1	linecode=1/0A	units=kft
New Line.B18971-1-C_Cust3	phases=1	bus1=X_B18971-C.3	bus2=X_B18971_Cust3-C.3	length=0.1	linecode=1/0A	units=kft
New Line.B18971-1-C_Cust2	phases=1	bus1=X_B18971-C.3	bus2=X_B18971_Cust2-C.3	length=0.1	linecode=1/0A	units=kft
New Line.B18971-1-C_Cust1	phases=1	bus1=X_B18971-C.3	bus2=X_B18971_Cust1-C.3	length=0.1	linecode=1/0A	units=kft
New Line.B8019-1-C_Cust6	phases=1	bus1=X_B8019-C.3	bus2=X_B8019_Cust6-C.3	length=0.1	linecode=1/0A	units=kft
...